pro_lig.A
  MOE2022           3D

 67 69  0  0  1  0  0  0  0  0999 V2000
   17.3040   -1.7010    3.9690 C   0  0  0  0  0  0  0  0  0  0  0  0
   16.6190   -0.8060    5.0110 C   0  0  0  0  0  0  0  0  0  0  0  0
   16.9310   -0.9300    6.5020 C   0  0  0  0  0  0  0  0  0  0  0  0
   17.9460   -1.9910    6.8830 C   0  0  0  0  0  0  0  0  0  0  0  0
   18.6340   -2.8610    5.8660 C   0  0  0  0  0  0  0  0  0  0  0  0
   18.3100   -2.7350    4.4100 C   0  0  0  0  0  0  0  0  0  0  0  0
   18.4570   -2.3210    8.1660 N   0  3  0  0  0  0  0  0  0  0  0  0
   19.4270   -3.3720    8.2580 C   0  0  0  0  0  0  0  0  0  0  0  0
   19.8160   -3.4790    9.6370 N   0  0  0  0  0  0  0  0  0  0  0  0
   19.0900   -2.5030   10.3720 N   0  0  0  0  0  0  0  0  0  0  0  0
   18.2280   -1.7610    9.4490 C   0  0  0  0  0  0  0  0  0  0  0  0
   17.4890   -0.8760    9.6770 O   0  0  0  0  0  0  0  0  0  0  0  0
   19.2400   -2.3330   11.7990 C   0  0  0  0  0  0  0  0  0  0  0  0
   20.3180   -1.2730   11.9950 C   0  0  0  0  0  0  0  0  0  0  0  0
   20.1540   -0.3110   13.1660 C   0  0  0  0  0  0  0  0  0  0  0  0
   21.1900    0.7540   13.3920 C   0  0  3  0  0  0  0  0  0  0  0  0
   22.4010    0.8610   12.4480 C   0  0  0  0  0  0  0  0  0  0  0  0
   22.5660   -0.1160   11.2970 C   0  0  3  0  0  0  0  0  0  0  0  0
   21.5210   -1.1870   11.0730 C   0  0  0  0  0  0  0  0  0  0  0  0
   23.7570   -0.0190   10.3420 C   0  0  0  0  0  0  0  0  0  0  0  0
   20.9480    1.6780   14.5780 C   0  0  0  0  0  0  0  0  0  0  0  0
   23.3640    1.8570   12.6700 O   0  0  0  0  0  0  0  0  0  0  0  0
   23.1080    3.1610   12.1910 C   0  0  0  0  0  0  0  0  0  0  0  0
   23.0000    4.0550   13.4270 C   0  0  0  0  0  0  0  0  0  0  0  0
   23.9680    4.1370   14.2310 O   0  0  0  0  0  0  0  0  0  0  0  0
   21.9490    4.7060   13.6540 O   0  5  0  0  0  0  0  0  0  0  0  0
   21.8930    3.2230   11.2670 C   0  0  0  0  0  0  0  0  0  0  0  0
   24.3030    3.7330   11.4360 C   0  0  0  0  0  0  0  0  0  0  0  0
   17.0110   -1.6080    2.5990 O   0  0  0  0  0  0  0  0  0  0  0  0
   18.0110   -2.0380    1.7040 C   0  0  0  0  0  0  0  0  0  0  0  0
   17.5720   -1.8430    0.4250 F   0  0  0  0  0  0  0  0  0  0  0  0
   19.1320   -1.3070    1.9280 F   0  0  0  0  0  0  0  0  0  0  0  0
   18.3610   -3.3520    1.8410 F   0  0  0  0  0  0  0  0  0  0  0  0
   16.5070   -2.4360    4.0840 H   0  0  0  0  0  0  0  0  0  0  0  0
   20.8080   -3.3100    9.7280 H   0  0  0  0  0  0  0  0  0  0  0  0
   20.8680   -1.9580   12.6410 H   0  0  0  0  0  0  0  0  0  0  0  0
   20.6300    1.4340   12.7490 H   0  0  0  0  0  0  0  0  0  0  0  0
   21.8430    1.5370   11.8010 H   0  0  0  0  0  0  0  0  0  0  0  0
   22.0030    0.5590   10.6520 H   0  0  0  0  0  0  0  0  0  0  0  0
   15.5480   -0.9770    4.9060 H   0  0  0  0  0  0  0  0  0  0  0  0
   16.8510    0.2220    4.7330 H   0  0  0  0  0  0  0  0  0  0  0  0
   15.9990   -1.1580    7.0200 H   0  0  0  0  0  0  0  0  0  0  0  0
   17.3100    0.0330    6.8450 H   0  0  0  0  0  0  0  0  0  0  0  0
   18.4220   -3.8930    6.1440 H   0  0  0  0  0  0  0  0  0  0  0  0
   19.7030   -2.6710    5.9650 H   0  0  0  0  0  0  0  0  0  0  0  0
   19.2440   -2.5120    3.8940 H   0  0  0  0  0  0  0  0  0  0  0  0
   17.9360   -3.7050    4.0820 H   0  0  0  0  0  0  0  0  0  0  0  0
   20.2950   -3.1330    7.6440 H   0  0  0  0  0  0  0  0  0  0  0  0
   18.9910   -4.3120    7.9200 H   0  0  0  0  0  0  0  0  0  0  0  0
   19.5460   -3.2720   12.2600 H   0  0  0  0  0  0  0  0  0  0  0  0
   18.3000   -2.0010   12.2400 H   0  0  0  0  0  0  0  0  0  0  0  0
   20.1170   -0.9160   14.0720 H   0  0  0  0  0  0  0  0  0  0  0  0
   19.2000    0.1970   13.0290 H   0  0  0  0  0  0  0  0  0  0  0  0
   21.1350   -1.0450   10.0630 H   0  0  0  0  0  0  0  0  0  0  0  0
   22.0350   -2.1470   11.1340 H   0  0  0  0  0  0  0  0  0  0  0  0
   24.5760   -0.6320   10.7190 H   0  0  0  0  0  0  0  0  0  0  0  0
   24.0830    1.0190   10.2710 H   0  0  0  0  0  0  0  0  0  0  0  0
   23.4610   -0.3750    9.3550 H   0  0  0  0  0  0  0  0  0  0  0  0
   21.4180    1.2580   15.4670 H   0  0  0  0  0  0  0  0  0  0  0  0
   19.8760    1.7790   14.7470 H   0  0  0  0  0  0  0  0  0  0  0  0
   21.3770    2.6580   14.3690 H   0  0  0  0  0  0  0  0  0  0  0  0
   21.0230    2.8190   11.7840 H   0  0  0  0  0  0  0  0  0  0  0  0
   22.0880    2.6350   10.3700 H   0  0  0  0  0  0  0  0  0  0  0  0
   21.7010    4.2590   10.9880 H   0  0  0  0  0  0  0  0  0  0  0  0
   25.1860    3.7000   12.0750 H   0  0  0  0  0  0  0  0  0  0  0  0
   24.0950    4.7660   11.1560 H   0  0  0  0  0  0  0  0  0  0  0  0
   24.4820    3.1420   10.5380 H   0  0  0  0  0  0  0  0  0  0  0  0
  1  2  1  0  0  0  0
  1  6  1  0  0  0  0
  1 29  1  0  0  0  0
  1 34  1  0  0  0  0
  2  3  1  0  0  0  0
  2 40  1  0  0  0  0
  2 41  1  0  0  0  0
  3  4  1  0  0  0  0
  3 42  1  0  0  0  0
  3 43  1  0  0  0  0
  4  5  1  0  0  0  0
  4  7  2  0  0  0  0
  5  6  1  0  0  0  0
  5 44  1  0  0  0  0
  5 45  1  0  0  0  0
  6 46  1  0  0  0  0
  6 47  1  0  0  0  0
  7  8  1  0  0  0  0
  7 11  1  0  0  0  0
  8  9  1  0  0  0  0
  8 48  1  0  0  0  0
  8 49  1  0  0  0  0
  9 10  1  0  0  0  0
  9 35  1  0  0  0  0
 10 11  1  0  0  0  0
 10 13  1  0  0  0  0
 11 12  2  0  0  0  0
 13 14  1  0  0  0  0
 13 50  1  0  0  0  0
 13 51  1  0  0  0  0
 14 15  1  0  0  0  0
 14 19  1  0  0  0  0
 14 36  1  0  0  0  0
 15 16  1  0  0  0  0
 15 52  1  0  0  0  0
 15 53  1  0  0  0  0
 16 17  1  0  0  0  0
 16 21  1  0  0  0  0
 16 37  1  0  0  0  0
 17 18  1  0  0  0  0
 17 22  1  0  0  0  0
 17 38  1  0  0  0  0
 18 19  1  0  0  0  0
 18 20  1  0  0  0  0
 18 39  1  0  0  0  0
 19 54  1  0  0  0  0
 19 55  1  0  0  0  0
 20 56  1  0  0  0  0
 20 57  1  0  0  0  0
 20 58  1  0  0  0  0
 21 59  1  0  0  0  0
 21 60  1  0  0  0  0
 21 61  1  0  0  0  0
 22 23  1  0  0  0  0
 23 24  1  0  0  0  0
 23 27  1  0  0  0  0
 23 28  1  0  0  0  0
 24 25  2  0  0  0  0
 24 26  1  0  0  0  0
 27 62  1  0  0  0  0
 27 63  1  0  0  0  0
 27 64  1  0  0  0  0
 28 65  1  0  0  0  0
 28 66  1  0  0  0  0
 28 67  1  0  0  0  0
 29 30  1  0  0  0  0
 30 31  1  0  0  0  0
 30 32  1  0  0  0  0
 30 33  1  0  0  0  0
M  CHG  1   7   1
M  CHG  1  26  -1
M  END
$$$$
